FoamFile
{
    version     2.0;
    format      ascii;
    class       dictionary;
    object      postProcessDict;
}

functions
{
    readFields_U
    {
        type        readFields;
        libs        (fieldFunctionObjects);
        fields      (U);
    }

    readFields_p
    {
        type        readFields;
        libs        (fieldFunctionObjects);
        fields      (p);
    }

    readFields_R
    {
        type        readFields;
        libs        (fieldFunctionObjects);
        fields      (R);
    }

    writeCellCentres
    {
        type        writeCellCentres;
        libs        (fieldFunctionObjects);
    }

    writeCellVolumes
    {
        type            writeCellVolumes;
        libs            (fieldFunctionObjects);
    }

    Lambda2
    {
        type            Lambda2;
        libs            (fieldFunctionObjects);
        executeControl  writeTime;
        writeControl    writeTime;
    }

    gradLambda2
    {
        type            grad;
        libs            (fieldFunctionObjects);
        field           Lambda2;
        executeControl  writeTime;
        writeControl    writeTime;
    }

    magGradLambda2
    {
        type            mag;
        libs            (fieldFunctionObjects);
        field           grad(Lambda2);
        executeControl  writeTime;
        writeControl    writeTime;
    }

    Q
    {
        type            Q;
        libs            (fieldFunctionObjects);
        executeControl  writeTime;
        writeControl    writeTime;
    }

    gradQ
    {
        type            grad;
        libs            (fieldFunctionObjects);
        field           Q;
        executeControl  writeTime;
        writeControl    writeTime;
    }

    magGradQ
    {
        type            mag;
        libs            (fieldFunctionObjects);
        field           grad(Q);RT/RT.C

        executeControl  writeTime;
        writeControl    writeTime;
    }

    LambVector
    {
        type            LambVector;
        libs            (fieldFunctionObjects);
        executeControl  writeTime;
        writeControl    writeTime;
    }

    magLambVector
    {
        type            mag;
        libs            (fieldFunctionObjects);
        field           LambVector;
        executeControl  writeTime;
        writeControl    writeTime;
    }

    gradMagLambVector
    {
        type            grad;
        libs            (fieldFunctionObjects);
        field           mag(LambVector);
        executeControl  writeTime;
        writeControl    writeTime;
    }

    magGradMagLambVector
    {
        type            mag;
        libs            (fieldFunctionObjects);
        field           grad(mag(LambVector));
        executeControl  writeTime;
        writeControl    writeTime;
    }

    magU
    {
        type        mag;
        libs        (fieldFunctionObjects);
        field       U;
    }

    SR
    {
        type        SR;
        libs        (fieldNNturbFunctionObjects);
    }

    FrSR
    {
        type        FrSR;
        libs        (fieldNNturbFunctionObjects);
    }

    RR
    {
        type        RR;
        libs        (fieldNNturbFunctionObjects);
    }

    FrRR
    {
        type        FrRR;
        libs        (fieldNNturbFunctionObjects);
    }

    FrGU
    {
        type        FrGU;
        libs        (fieldNNturbFunctionObjects);
    }

    I1GU
    {
        type        I1GU;
        libs        (fieldNNturbFunctionObjects);
    }

    I2GU
    {
        type        I2GU;
        libs        (fieldNNturbFunctionObjects);
    }

    FrGGU
    {
        type        FrGGU;
        libs        (fieldNNturbFunctionObjects);
    }

    I0GGU
    {
        type        I0GGU;
        libs        (fieldNNturbFunctionObjects);
    }

    I2GGU
    {
        type        I2GGU;
        libs        (fieldNNturbFunctionObjects);
    }

    I3GGU
    {
        type        I3GGU;
        libs        (fieldNNturbFunctionObjects);
    }

    I5GGU
    {
        type        I5GGU;
        libs        (fieldNNturbFunctionObjects);
    }

    I7GGU
    {
        type        I7GGU;
        libs        (fieldNNturbFunctionObjects);
    }

    I1GGP
    {
        type        I1GGP;
        libs        (fieldNNturbFunctionObjects);
    }

    I1
    {
        type        I1;
        libs        (fieldNNturbFunctionObjects);
    }

    I2
    {
        type        I2;
        libs        (fieldNNturbFunctionObjects);
    }

    I3
    {
        type        I3;
        libs        (fieldNNturbFunctionObjects);
    }

    I4
    {
        type        I4;
        libs        (fieldNNturbFunctionObjects);
    }

    I5
    {
        type        I5;
        libs        (fieldNNturbFunctionObjects);
    }

    T1
    {
        type        T1;
        libs        (fieldNNturbFunctionObjects);
    }

    T2
    {
        type        T2;
        libs        (fieldNNturbFunctionObjects);
    }

    T3
    {
        type        T3;
        libs        (fieldNNturbFunctionObjects);
    }

    T4
    {
        type        T4;
        libs        (fieldNNturbFunctionObjects);
    }

    T5
    {
        type        T5;
        libs        (fieldNNturbFunctionObjects);
    }

    T6
    {
        type        T6;
        libs        (fieldNNturbFunctionObjects);
    }

    T7
    {
        type        T7;
        libs        (fieldNNturbFunctionObjects);
    }

    T8
    {
        type        T8;
        libs        (fieldNNturbFunctionObjects);
    }

    T9
    {
        type        T9;
        libs        (fieldNNturbFunctionObjects);
    }

    T10
    {
        type        T10;
        libs        (fieldNNturbFunctionObjects);
    }

    reynoldsStressPope
    {
        type            reynoldsStressPope;
        libs            (fieldNNturbFunctionObjects);
    
        enabled         true;
        writeControl    timeStep;
        writeInterval   1;
        
        // Name of velocity field
        U               U;
        
        // Name of Reynolds stress tensor field (symmTensorField)
        R               R;
        
        // Optional: whether to write intermediate tensors
        writeTensors    true;
        
        // Optional: use only 6 independent equations (recommended for symmetric R)
        useSymmetricEqns true;
        
        // Optional: SVD tolerance
        svdTolerance    1e-12;
    }
}
